%chk=Cis.chk
%mem=144GB
%CPU=0,1,2,3,4,5,6,7,8,9,10,11,12,13,14,15,16,17,18,19,20,21,22,23,24,25,26,27,28,29,30,31,32,33,34,35,36,37,38,39,40,41,42,43,44,45,46,47
%lindaworkers=1
# opt b3lyp/6-31g

Structure Optimization

0  1
P 0.0060 0.0033 0.1123
O 0.0871 0.0476 1.6208
Cl 1.8999 -0.3098 -0.6729
Cl -0.7459 1.8030 -0.5927
Cl -1.2472 -1.5442 -0.4675
