%chk=Cis.chk
%mem=144GB
%CPU=0,1,2,3,4,5,6,7,8,9,10,11,12,13,14,15,16,17,18,19,20,21,22,23,24,25,26,27,28,29,30,31,32,33,34,35,36,37,38,39,40,41,42,43,44,45,46,47
%lindaworkers=1
# opt b3lyp/6-31g

Structure Optimization

0  1
C -0.3940 -0.1088 0.1788
C 0.7586 -1.0253 0.1004
C 2.0538 -0.6706 0.0959
C 2.5796 0.7007 -0.0399
O 1.9147 1.6068 -0.6075
O 3.8722 0.9748 0.3866
O -0.2854 1.0283 0.7139
O -1.6367 -0.5559 -0.2781
C -2.8107 0.2451 -0.2151
H 0.5311 -2.0842 0.0824
H 2.7886 -1.4641 0.1570
H -3.6633 -0.3235 -0.6398
H -3.0398 0.5018 0.8409
H -2.6685 1.1751 -0.8053
