%chk=Cis.chk
%mem=144GB
%CPU=0,1,2,3,4,5,6,7,8,9,10,11,12,13,14,15,16,17,18,19,20,21,22,23,24,25,26,27,28,29,30,31,32,33,34,35,36,37,38,39,40,41,42,43,44,45,46,47
%lindaworkers=1
# opt b3lyp/6-31g

Structure Optimization

0  1
N 4.0488 -3.9027 -1.6532
O 5.1742 -3.8749 -2.1921
O 3.4961 -5.1108 -1.2992
C 3.3326 -2.6917 -1.4022
C 3.7713 -1.4173 -1.7067
C 2.7623 -0.5747 -1.2884
C 1.7799 -1.3929 -0.7586
O 2.1478 -2.6514 -0.8400
C 0.5048 -0.9387 -0.1844
N 0.1364 0.3548 -0.1037
N -1.0610 0.4048 0.4659
C -1.4719 -0.8494 0.7606
C -0.4929 -1.7278 0.3550
C -0.5173 -3.1601 0.4883
N -0.5363 -4.3122 0.5953
C -1.7669 1.6370 0.7232
C -3.1280 1.6402 1.0908
C -3.7940 2.8459 1.3333
C -3.1154 4.0598 1.2103
C -1.7691 4.0716 0.8416
C -1.0980 2.8698 0.5973
H 4.7056 -1.1348 -2.1734
H 2.7471 0.5048 -1.3618
H -2.3987 -1.1162 1.2499
H -3.6872 0.7201 1.1791
H -4.8395 2.8386 1.6135
H -3.6336 4.9912 1.3983
H -1.2441 5.0132 0.7450
H -0.0532 2.9037 0.3162
